  
       XFOIL         Version 6.99
  
 Calculated polar for: NACA 0012                                       
  
 1 1 Reynolds number fixed          Mach number fixed         
  
 xtrf =   1.000 (top)        1.000 (bottom)  
 Mach =   0.000     Re =     1.000 e 6     Ncrit =   9.000  9.000
  
   alpha    CL        CD       CDp       CM     Top_Xtr  Bot_Xtr  Top_Itr  Bot_Itr
  ------ -------- --------- --------- -------- -------- -------- -------- --------
   0.000   0.0000   0.00540   0.00046  -0.0000   0.6871   0.6870  21.0490 139.9468
   0.250   0.0269   0.00540   0.00046   0.0003   0.6611   0.7120  22.6044 141.4414
   0.500   0.0537   0.00542   0.00047   0.0007   0.6355   0.7372  24.1369 142.9479
   0.750   0.0805   0.00544   0.00048   0.0011   0.6089   0.7612  25.7296 144.3833
   1.000   0.1074   0.00549   0.00050   0.0014   0.5825   0.7847  27.3148 145.7923
   1.250   0.1341   0.00555   0.00053   0.0018   0.5554   0.8070  28.9427 147.1253
   1.500   0.1609   0.00561   0.00056   0.0022   0.5289   0.8284  30.5372 148.4070
   1.750   0.1876   0.00570   0.00060   0.0026   0.5018   0.8487  32.1689 149.6263
   2.000   0.2142   0.00580   0.00064   0.0030   0.4742   0.8677  33.8336 150.7650
   2.250   0.2409   0.00592   0.00069   0.0034   0.4472   0.8851  35.4687 151.8113
   2.500   0.2673   0.00606   0.00074   0.0039   0.4194   0.9010  37.1531 152.7741
   2.750   0.2936   0.00622   0.00080   0.0044   0.3918   0.9155  38.8332 153.6587
   3.000   0.3200   0.00639   0.00087   0.0048   0.3641   0.9285  40.5240 154.4574
   3.250   0.3463   0.00659   0.00094   0.0053   0.3368   0.9404  42.2038 155.2062
   3.500   0.3723   0.00681   0.00101   0.0058   0.3087   0.9517  43.9331 155.9360
   3.750   0.4006   0.00703   0.00110   0.0058   0.2808   0.9598  45.6677 156.4872
   4.000   0.4278   0.00728   0.00118   0.0060   0.2537   0.9684  47.3683 157.0899
   4.250   0.4590   0.00757   0.00129   0.0053   0.2251   0.9737  49.1780 157.4922
   4.500   0.4877   0.00785   0.00139   0.0051   0.1990   0.9804  50.8536 158.0023
   4.750   0.5226   0.00815   0.00152   0.0035   0.1728   0.9828  52.5644 158.2112
   5.000   0.5580   0.00848   0.00165   0.0017   0.1486   0.9849  54.1842 158.3994
   5.250   0.5925   0.00880   0.00179   0.0002   0.1272   0.9874  55.6694 158.6197
   5.500   0.6254   0.00912   0.00194  -0.0011   0.1087   0.9904  57.0068 158.8896
   5.750   0.6595   0.00942   0.00209  -0.0025   0.0939   0.9925  58.1558 159.0973
   6.000   0.6948   0.00973   0.00224  -0.0043   0.0813   0.9940  59.2027 159.2786
   6.250   0.7295   0.01004   0.00239  -0.0059   0.0707   0.9958  60.1755 159.4902
   6.500   0.7637   0.01036   0.00257  -0.0074   0.0619   0.9976  61.0550 159.7115
   6.750   0.7978   0.01067   0.00274  -0.0089   0.0555   0.9992  61.7756 159.9084
   7.000   0.8264   0.01094   0.00289  -0.0092   0.0506   1.0000  62.3742 160.0000
   7.250   0.8469   0.01127   0.00307  -0.0079   0.0460   1.0000  62.9685 160.0000
   7.500   0.8683   0.01149   0.00320  -0.0066   0.0436   1.0000  63.3331 160.0000
   7.750   0.8890   0.01180   0.00337  -0.0053   0.0405   1.0000  63.7850 160.0000
   8.000   0.9098   0.01211   0.00355  -0.0039   0.0381   1.0000  64.1749 160.0000
   8.250   0.9312   0.01238   0.00371  -0.0027   0.0359   1.0000  64.5437 160.0000
   8.500   0.9511   0.01282   0.00397  -0.0013   0.0334   1.0000  64.9782 160.0000
   8.750   0.9730   0.01309   0.00415  -0.0001   0.0322   1.0000  65.2225 160.0000
   9.000   0.9948   0.01341   0.00434   0.0010   0.0307   1.0000  65.5158 160.0000
   9.250   1.0154   0.01383   0.00460   0.0022   0.0291   1.0000  65.8363 160.0000
   9.500   1.0363   0.01427   0.00488   0.0034   0.0278   1.0000  66.1095 160.0000
   9.750   1.0588   0.01459   0.00509   0.0044   0.0267   1.0000  66.3619 160.0000
  10.000   1.0809   0.01498   0.00533   0.0053   0.0255   1.0000  66.6165 160.0000
   0.000   0.0000   0.00540   0.00046  -0.0000   0.6871   0.6870  21.0490 139.9468
   0.250   0.0269   0.00540   0.00046   0.0003   0.6611   0.7120  22.6044 141.4414
   0.500   0.0537   0.00542   0.00047   0.0007   0.6355   0.7372  24.1369 142.9479
   0.750   0.0805   0.00544   0.00048   0.0011   0.6089   0.7612  25.7296 144.3833
   1.000   0.1074   0.00549   0.00050   0.0014   0.5825   0.7847  27.3148 145.7923
   1.250   0.1341   0.00555   0.00053   0.0018   0.5554   0.8070  28.9427 147.1253
   1.500   0.1609   0.00561   0.00056   0.0022   0.5289   0.8284  30.5372 148.4070
   1.750   0.1876   0.00570   0.00060   0.0026   0.5018   0.8487  32.1689 149.6263
   2.000   0.2142   0.00580   0.00064   0.0030   0.4742   0.8677  33.8336 150.7650
   2.250   0.2409   0.00592   0.00069   0.0034   0.4472   0.8851  35.4687 151.8113
   2.500   0.2673   0.00606   0.00074   0.0039   0.4194   0.9010  37.1531 152.7741
   2.750   0.2936   0.00622   0.00080   0.0044   0.3918   0.9155  38.8332 153.6587
   3.000   0.3200   0.00639   0.00087   0.0048   0.3641   0.9285  40.5240 154.4574
   3.250   0.3463   0.00659   0.00094   0.0053   0.3368   0.9404  42.2038 155.2062
   3.500   0.3723   0.00681   0.00101   0.0058   0.3087   0.9517  43.9331 155.9360
   3.750   0.4006   0.00703   0.00110   0.0058   0.2808   0.9598  45.6677 156.4872
   4.000   0.4278   0.00728   0.00118   0.0060   0.2537   0.9684  47.3683 157.0899
   4.250   0.4590   0.00757   0.00129   0.0053   0.2251   0.9737  49.1780 157.4922
   4.500   0.4877   0.00785   0.00139   0.0051   0.1990   0.9804  50.8536 158.0023
   4.750   0.5226   0.00815   0.00152   0.0035   0.1728   0.9828  52.5644 158.2112
   5.000   0.5580   0.00848   0.00165   0.0017   0.1486   0.9849  54.1842 158.3994
   5.250   0.5925   0.00880   0.00179   0.0002   0.1272   0.9874  55.6694 158.6197
   5.500   0.6254   0.00912   0.00194  -0.0011   0.1087   0.9904  57.0068 158.8896
   5.750   0.6595   0.00942   0.00209  -0.0025   0.0939   0.9925  58.1558 159.0973
   6.000   0.6948   0.00973   0.00224  -0.0043   0.0813   0.9940  59.2027 159.2786
   6.250   0.7295   0.01004   0.00239  -0.0059   0.0707   0.9958  60.1755 159.4902
   6.500   0.7637   0.01036   0.00257  -0.0074   0.0619   0.9976  61.0550 159.7115
   6.750   0.7978   0.01067   0.00274  -0.0089   0.0555   0.9992  61.7756 159.9084
   7.000   0.8264   0.01094   0.00289  -0.0092   0.0506   1.0000  62.3742 160.0000
   7.250   0.8469   0.01127   0.00307  -0.0079   0.0460   1.0000  62.9685 160.0000
   7.500   0.8683   0.01149   0.00320  -0.0066   0.0436   1.0000  63.3331 160.0000
   7.750   0.8890   0.01180   0.00337  -0.0053   0.0405   1.0000  63.7850 160.0000
   8.000   0.9098   0.01211   0.00355  -0.0039   0.0381   1.0000  64.1749 160.0000
   8.250   0.9312   0.01238   0.00371  -0.0027   0.0359   1.0000  64.5437 160.0000
   8.500   0.9511   0.01282   0.00397  -0.0013   0.0334   1.0000  64.9782 160.0000
   8.750   0.9730   0.01309   0.00415  -0.0001   0.0322   1.0000  65.2225 160.0000
   9.000   0.9948   0.01341   0.00434   0.0010   0.0307   1.0000  65.5158 160.0000
   9.250   1.0154   0.01383   0.00460   0.0022   0.0291   1.0000  65.8363 160.0000
   9.500   1.0363   0.01427   0.00488   0.0034   0.0278   1.0000  66.1095 160.0000
   9.750   1.0588   0.01459   0.00509   0.0044   0.0267   1.0000  66.3619 160.0000
  10.000   1.0809   0.01498   0.00533   0.0053   0.0255   1.0000  66.6165 160.0000
   0.000   0.0000   0.00540   0.00046  -0.0000   0.6871   0.6870  21.0490 139.9468
   0.250   0.0269   0.00540   0.00046   0.0003   0.6611   0.7120  22.6044 141.4414
   0.500   0.0537   0.00542   0.00047   0.0007   0.6355   0.7372  24.1369 142.9479
   0.750   0.0805   0.00544   0.00048   0.0011   0.6089   0.7612  25.7296 144.3833
   1.000   0.1074   0.00549   0.00050   0.0014   0.5825   0.7847  27.3148 145.7923
   1.250   0.1341   0.00555   0.00053   0.0018   0.5554   0.8070  28.9427 147.1253
   1.500   0.1609   0.00561   0.00056   0.0022   0.5289   0.8284  30.5372 148.4070
   1.750   0.1876   0.00570   0.00060   0.0026   0.5018   0.8487  32.1689 149.6263
   2.000   0.2142   0.00580   0.00064   0.0030   0.4742   0.8677  33.8336 150.7650
   2.250   0.2409   0.00592   0.00069   0.0034   0.4472   0.8851  35.4687 151.8113
   2.500   0.2673   0.00606   0.00074   0.0039   0.4194   0.9010  37.1531 152.7741
   2.750   0.2936   0.00622   0.00080   0.0044   0.3918   0.9155  38.8332 153.6587
   3.000   0.3200   0.00639   0.00087   0.0048   0.3641   0.9285  40.5240 154.4574
   3.250   0.3463   0.00659   0.00094   0.0053   0.3368   0.9404  42.2038 155.2062
   3.500   0.3723   0.00681   0.00101   0.0058   0.3087   0.9517  43.9331 155.9360
   3.750   0.4006   0.00703   0.00110   0.0058   0.2808   0.9598  45.6677 156.4872
   4.000   0.4278   0.00728   0.00118   0.0060   0.2537   0.9684  47.3683 157.0899
   4.250   0.4590   0.00757   0.00129   0.0053   0.2251   0.9737  49.1780 157.4922
   4.500   0.4877   0.00785   0.00139   0.0051   0.1990   0.9804  50.8536 158.0023
   4.750   0.5226   0.00815   0.00152   0.0035   0.1728   0.9828  52.5644 158.2112
   5.000   0.5580   0.00848   0.00165   0.0017   0.1486   0.9849  54.1842 158.3994
   5.250   0.5925   0.00880   0.00179   0.0002   0.1272   0.9874  55.6694 158.6197
   5.500   0.6254   0.00912   0.00194  -0.0011   0.1087   0.9904  57.0068 158.8896
   5.750   0.6595   0.00942   0.00209  -0.0025   0.0939   0.9925  58.1558 159.0973
   6.000   0.6948   0.00973   0.00224  -0.0043   0.0813   0.9940  59.2027 159.2786
   6.250   0.7295   0.01004   0.00239  -0.0059   0.0707   0.9958  60.1755 159.4902
   6.500   0.7637   0.01036   0.00257  -0.0074   0.0619   0.9976  61.0550 159.7115
   6.750   0.7978   0.01067   0.00274  -0.0089   0.0555   0.9992  61.7756 159.9084
   7.000   0.8264   0.01094   0.00289  -0.0092   0.0506   1.0000  62.3742 160.0000
   7.250   0.8469   0.01127   0.00307  -0.0079   0.0460   1.0000  62.9685 160.0000
   7.500   0.8683   0.01149   0.00320  -0.0066   0.0436   1.0000  63.3331 160.0000
   7.750   0.8890   0.01180   0.00337  -0.0053   0.0405   1.0000  63.7850 160.0000
   8.000   0.9098   0.01211   0.00355  -0.0039   0.0381   1.0000  64.1749 160.0000
   8.250   0.9312   0.01238   0.00371  -0.0027   0.0359   1.0000  64.5437 160.0000
   8.500   0.9511   0.01282   0.00397  -0.0013   0.0334   1.0000  64.9782 160.0000
   8.750   0.9730   0.01309   0.00415  -0.0001   0.0322   1.0000  65.2225 160.0000
   9.000   0.9948   0.01341   0.00434   0.0010   0.0307   1.0000  65.5158 160.0000
   9.250   1.0154   0.01383   0.00460   0.0022   0.0291   1.0000  65.8363 160.0000
   9.500   1.0363   0.01427   0.00488   0.0034   0.0278   1.0000  66.1095 160.0000
   9.750   1.0588   0.01459   0.00509   0.0044   0.0267   1.0000  66.3619 160.0000
  10.000   1.0809   0.01498   0.00533   0.0053   0.0255   1.0000  66.6165 160.0000
   0.000   0.0000   0.00540   0.00046  -0.0000   0.6871   0.6870  21.0490 139.9468
   0.250   0.0269   0.00540   0.00046   0.0003   0.6611   0.7120  22.6044 141.4414
   0.500   0.0537   0.00542   0.00047   0.0007   0.6355   0.7372  24.1369 142.9479
   0.750   0.0805   0.00544   0.00048   0.0011   0.6089   0.7612  25.7296 144.3833
   1.000   0.1074   0.00549   0.00050   0.0014   0.5825   0.7847  27.3148 145.7923
   1.250   0.1341   0.00555   0.00053   0.0018   0.5554   0.8070  28.9427 147.1253
   1.500   0.1609   0.00561   0.00056   0.0022   0.5289   0.8284  30.5372 148.4070
   1.750   0.1876   0.00570   0.00060   0.0026   0.5018   0.8487  32.1689 149.6263
   2.000   0.2142   0.00580   0.00064   0.0030   0.4742   0.8677  33.8336 150.7650
   2.250   0.2409   0.00592   0.00069   0.0034   0.4472   0.8851  35.4687 151.8113
   2.500   0.2673   0.00606   0.00074   0.0039   0.4194   0.9010  37.1531 152.7741
   2.750   0.2936   0.00622   0.00080   0.0044   0.3918   0.9155  38.8332 153.6587
   3.000   0.3200   0.00639   0.00087   0.0048   0.3641   0.9285  40.5240 154.4574
   3.250   0.3463   0.00659   0.00094   0.0053   0.3368   0.9404  42.2038 155.2062
   3.500   0.3723   0.00681   0.00101   0.0058   0.3087   0.9517  43.9331 155.9360
   3.750   0.4006   0.00703   0.00110   0.0058   0.2808   0.9598  45.6677 156.4872
   4.000   0.4278   0.00728   0.00118   0.0060   0.2537   0.9684  47.3683 157.0899
   4.250   0.4590   0.00757   0.00129   0.0053   0.2251   0.9737  49.1780 157.4922
   4.500   0.4877   0.00785   0.00139   0.0051   0.1990   0.9804  50.8536 158.0023
   4.750   0.5226   0.00815   0.00152   0.0035   0.1728   0.9828  52.5644 158.2112
   5.000   0.5580   0.00848   0.00165   0.0017   0.1486   0.9849  54.1842 158.3994
   5.250   0.5925   0.00880   0.00179   0.0002   0.1272   0.9874  55.6694 158.6197
   5.500   0.6254   0.00912   0.00194  -0.0011   0.1087   0.9904  57.0068 158.8896
   5.750   0.6595   0.00942   0.00209  -0.0025   0.0939   0.9925  58.1558 159.0973
   6.000   0.6948   0.00973   0.00224  -0.0043   0.0813   0.9940  59.2027 159.2786
   6.250   0.7295   0.01004   0.00239  -0.0059   0.0707   0.9958  60.1755 159.4902
   6.500   0.7637   0.01036   0.00257  -0.0074   0.0619   0.9976  61.0550 159.7115
   6.750   0.7978   0.01067   0.00274  -0.0089   0.0555   0.9992  61.7756 159.9084
   7.000   0.8264   0.01094   0.00289  -0.0092   0.0506   1.0000  62.3742 160.0000
   7.250   0.8469   0.01127   0.00307  -0.0079   0.0460   1.0000  62.9685 160.0000
   7.500   0.8683   0.01149   0.00320  -0.0066   0.0436   1.0000  63.3331 160.0000
   7.750   0.8890   0.01180   0.00337  -0.0053   0.0405   1.0000  63.7850 160.0000
   8.000   0.9098   0.01211   0.00355  -0.0039   0.0381   1.0000  64.1749 160.0000
   8.250   0.9312   0.01238   0.00371  -0.0027   0.0359   1.0000  64.5437 160.0000
   8.500   0.9511   0.01282   0.00397  -0.0013   0.0334   1.0000  64.9782 160.0000
   8.750   0.9730   0.01309   0.00415  -0.0001   0.0322   1.0000  65.2225 160.0000
   9.000   0.9948   0.01341   0.00434   0.0010   0.0307   1.0000  65.5158 160.0000
   9.250   1.0154   0.01383   0.00460   0.0022   0.0291   1.0000  65.8363 160.0000
   9.500   1.0363   0.01427   0.00488   0.0034   0.0278   1.0000  66.1095 160.0000
   9.750   1.0588   0.01459   0.00509   0.0044   0.0267   1.0000  66.3619 160.0000
  10.000   1.0809   0.01498   0.00533   0.0053   0.0255   1.0000  66.6165 160.0000
   0.000   0.0000   0.00540   0.00046  -0.0000   0.6871   0.6870  21.0490 139.9468
   0.250   0.0269   0.00540   0.00046   0.0003   0.6611   0.7120  22.6044 141.4414
   0.500   0.0537   0.00542   0.00047   0.0007   0.6355   0.7372  24.1369 142.9479
   0.750   0.0805   0.00544   0.00048   0.0011   0.6089   0.7612  25.7296 144.3833
   1.000   0.1074   0.00549   0.00050   0.0014   0.5825   0.7847  27.3148 145.7923
   1.250   0.1341   0.00555   0.00053   0.0018   0.5554   0.8070  28.9427 147.1253
   1.500   0.1609   0.00561   0.00056   0.0022   0.5289   0.8284  30.5372 148.4070
   1.750   0.1876   0.00570   0.00060   0.0026   0.5018   0.8487  32.1689 149.6263
   2.000   0.2142   0.00580   0.00064   0.0030   0.4742   0.8677  33.8336 150.7650
   2.250   0.2409   0.00592   0.00069   0.0034   0.4472   0.8851  35.4687 151.8113
   2.500   0.2673   0.00606   0.00074   0.0039   0.4194   0.9010  37.1531 152.7741
   2.750   0.2936   0.00622   0.00080   0.0044   0.3918   0.9155  38.8332 153.6587
   3.000   0.3200   0.00639   0.00087   0.0048   0.3641   0.9285  40.5240 154.4574
   3.250   0.3463   0.00659   0.00094   0.0053   0.3368   0.9404  42.2038 155.2062
   3.500   0.3723   0.00681   0.00101   0.0058   0.3087   0.9517  43.9331 155.9360
   3.750   0.4006   0.00703   0.00110   0.0058   0.2808   0.9598  45.6677 156.4872
   4.000   0.4278   0.00728   0.00118   0.0060   0.2537   0.9684  47.3683 157.0899
   4.250   0.4590   0.00757   0.00129   0.0053   0.2251   0.9737  49.1780 157.4922
   4.500   0.4877   0.00785   0.00139   0.0051   0.1990   0.9804  50.8536 158.0023
   4.750   0.5226   0.00815   0.00152   0.0035   0.1728   0.9828  52.5644 158.2112
   5.000   0.5580   0.00848   0.00165   0.0017   0.1486   0.9849  54.1842 158.3994
   5.250   0.5925   0.00880   0.00179   0.0002   0.1272   0.9874  55.6694 158.6197
   5.500   0.6254   0.00912   0.00194  -0.0011   0.1087   0.9904  57.0068 158.8896
   5.750   0.6595   0.00942   0.00209  -0.0025   0.0939   0.9925  58.1558 159.0973
   6.000   0.6948   0.00973   0.00224  -0.0043   0.0813   0.9940  59.2027 159.2786
   6.250   0.7295   0.01004   0.00239  -0.0059   0.0707   0.9958  60.1755 159.4902
   6.500   0.7637   0.01036   0.00257  -0.0074   0.0619   0.9976  61.0550 159.7115
   6.750   0.7978   0.01067   0.00274  -0.0089   0.0555   0.9992  61.7756 159.9084
   7.000   0.8264   0.01094   0.00289  -0.0092   0.0506   1.0000  62.3742 160.0000
   7.250   0.8469   0.01127   0.00307  -0.0079   0.0460   1.0000  62.9685 160.0000
   7.500   0.8683   0.01149   0.00320  -0.0066   0.0436   1.0000  63.3331 160.0000
   7.750   0.8890   0.01180   0.00337  -0.0053   0.0405   1.0000  63.7850 160.0000
   8.000   0.9098   0.01211   0.00355  -0.0039   0.0381   1.0000  64.1749 160.0000
   8.250   0.9312   0.01238   0.00371  -0.0027   0.0359   1.0000  64.5437 160.0000
   8.500   0.9511   0.01282   0.00397  -0.0013   0.0334   1.0000  64.9782 160.0000
   8.750   0.9730   0.01309   0.00415  -0.0001   0.0322   1.0000  65.2225 160.0000
   9.000   0.9948   0.01341   0.00434   0.0010   0.0307   1.0000  65.5158 160.0000
   9.250   1.0154   0.01383   0.00460   0.0022   0.0291   1.0000  65.8363 160.0000
   9.500   1.0363   0.01427   0.00488   0.0034   0.0278   1.0000  66.1095 160.0000
   9.750   1.0588   0.01459   0.00509   0.0044   0.0267   1.0000  66.3619 160.0000
  10.000   1.0809   0.01498   0.00533   0.0053   0.0255   1.0000  66.6165 160.0000
   0.000   0.0000   0.00540   0.00046  -0.0000   0.6871   0.6870  21.0490 139.9468
   0.250   0.0269   0.00540   0.00046   0.0003   0.6611   0.7120  22.6044 141.4414
   0.500   0.0537   0.00542   0.00047   0.0007   0.6355   0.7372  24.1369 142.9479
   0.750   0.0805   0.00544   0.00048   0.0011   0.6089   0.7612  25.7296 144.3833
   1.000   0.1074   0.00549   0.00050   0.0014   0.5825   0.7847  27.3148 145.7923
   1.250   0.1341   0.00555   0.00053   0.0018   0.5554   0.8070  28.9427 147.1253
   1.500   0.1609   0.00561   0.00056   0.0022   0.5289   0.8284  30.5372 148.4070
   1.750   0.1876   0.00570   0.00060   0.0026   0.5018   0.8487  32.1689 149.6263
   2.000   0.2142   0.00580   0.00064   0.0030   0.4742   0.8677  33.8336 150.7650
   2.250   0.2409   0.00592   0.00069   0.0034   0.4472   0.8851  35.4687 151.8113
   2.500   0.2673   0.00606   0.00074   0.0039   0.4194   0.9010  37.1531 152.7741
   2.750   0.2936   0.00622   0.00080   0.0044   0.3918   0.9155  38.8332 153.6587
   3.000   0.3200   0.00639   0.00087   0.0048   0.3641   0.9285  40.5240 154.4574
   3.250   0.3463   0.00659   0.00094   0.0053   0.3368   0.9404  42.2038 155.2062
   3.500   0.3723   0.00681   0.00101   0.0058   0.3087   0.9517  43.9331 155.9360
   3.750   0.4006   0.00703   0.00110   0.0058   0.2808   0.9598  45.6677 156.4872
   4.000   0.4278   0.00728   0.00118   0.0060   0.2537   0.9684  47.3683 157.0899
   4.250   0.4590   0.00757   0.00129   0.0053   0.2251   0.9737  49.1780 157.4922
   4.500   0.4877   0.00785   0.00139   0.0051   0.1990   0.9804  50.8536 158.0023
   4.750   0.5226   0.00815   0.00152   0.0035   0.1728   0.9828  52.5644 158.2112
   5.000   0.5580   0.00848   0.00165   0.0017   0.1486   0.9849  54.1842 158.3994
   5.250   0.5925   0.00880   0.00179   0.0002   0.1272   0.9874  55.6694 158.6197
   5.500   0.6254   0.00912   0.00194  -0.0011   0.1087   0.9904  57.0068 158.8896
   5.750   0.6595   0.00942   0.00209  -0.0025   0.0939   0.9925  58.1558 159.0973
   6.000   0.6948   0.00973   0.00224  -0.0043   0.0813   0.9940  59.2027 159.2786
   6.250   0.7295   0.01004   0.00239  -0.0059   0.0707   0.9958  60.1755 159.4902
   6.500   0.7637   0.01036   0.00257  -0.0074   0.0619   0.9976  61.0550 159.7115
   6.750   0.7978   0.01067   0.00274  -0.0089   0.0555   0.9992  61.7756 159.9084
   7.000   0.8264   0.01094   0.00289  -0.0092   0.0506   1.0000  62.3742 160.0000
   7.250   0.8469   0.01127   0.00307  -0.0079   0.0460   1.0000  62.9685 160.0000
   7.500   0.8683   0.01149   0.00320  -0.0066   0.0436   1.0000  63.3331 160.0000
   7.750   0.8890   0.01180   0.00337  -0.0053   0.0405   1.0000  63.7850 160.0000
   8.000   0.9098   0.01211   0.00355  -0.0039   0.0381   1.0000  64.1749 160.0000
   8.250   0.9312   0.01238   0.00371  -0.0027   0.0359   1.0000  64.5437 160.0000
   8.500   0.9511   0.01282   0.00397  -0.0013   0.0334   1.0000  64.9782 160.0000
   8.750   0.9730   0.01309   0.00415  -0.0001   0.0322   1.0000  65.2225 160.0000
   9.000   0.9948   0.01341   0.00434   0.0010   0.0307   1.0000  65.5158 160.0000
   9.250   1.0154   0.01383   0.00460   0.0022   0.0291   1.0000  65.8363 160.0000
   9.500   1.0363   0.01427   0.00488   0.0034   0.0278   1.0000  66.1095 160.0000
   9.750   1.0588   0.01459   0.00509   0.0044   0.0267   1.0000  66.3619 160.0000
  10.000   1.0809   0.01498   0.00533   0.0053   0.0255   1.0000  66.6165 160.0000
   0.000   0.0000   0.00540   0.00046  -0.0000   0.6871   0.6870  21.0490 139.9468
   0.250   0.0269   0.00540   0.00046   0.0003   0.6611   0.7120  22.6044 141.4414
   0.500   0.0537   0.00542   0.00047   0.0007   0.6355   0.7372  24.1369 142.9479
   0.750   0.0805   0.00544   0.00048   0.0011   0.6089   0.7612  25.7296 144.3833
   1.000   0.1074   0.00549   0.00050   0.0014   0.5825   0.7847  27.3148 145.7923
   1.250   0.1341   0.00555   0.00053   0.0018   0.5554   0.8070  28.9427 147.1253
   1.500   0.1609   0.00561   0.00056   0.0022   0.5289   0.8284  30.5372 148.4070
   1.750   0.1876   0.00570   0.00060   0.0026   0.5018   0.8487  32.1689 149.6263
   2.000   0.2142   0.00580   0.00064   0.0030   0.4742   0.8677  33.8336 150.7650
   2.250   0.2409   0.00592   0.00069   0.0034   0.4472   0.8851  35.4687 151.8113
   2.500   0.2673   0.00606   0.00074   0.0039   0.4194   0.9010  37.1531 152.7741
   2.750   0.2936   0.00622   0.00080   0.0044   0.3918   0.9155  38.8332 153.6587
   3.000   0.3200   0.00639   0.00087   0.0048   0.3641   0.9285  40.5240 154.4574
   3.250   0.3463   0.00659   0.00094   0.0053   0.3368   0.9404  42.2038 155.2062
   3.500   0.3723   0.00681   0.00101   0.0058   0.3087   0.9517  43.9331 155.9360
   3.750   0.4006   0.00703   0.00110   0.0058   0.2808   0.9598  45.6677 156.4872
   4.000   0.4278   0.00728   0.00118   0.0060   0.2537   0.9684  47.3683 157.0899
   4.250   0.4590   0.00757   0.00129   0.0053   0.2251   0.9737  49.1780 157.4922
   4.500   0.4877   0.00785   0.00139   0.0051   0.1990   0.9804  50.8536 158.0023
   4.750   0.5226   0.00815   0.00152   0.0035   0.1728   0.9828  52.5644 158.2112
   5.000   0.5580   0.00848   0.00165   0.0017   0.1486   0.9849  54.1842 158.3994
   5.250   0.5925   0.00880   0.00179   0.0002   0.1272   0.9874  55.6694 158.6197
   5.500   0.6254   0.00912   0.00194  -0.0011   0.1087   0.9904  57.0068 158.8896
   5.750   0.6595   0.00942   0.00209  -0.0025   0.0939   0.9925  58.1558 159.0973
   6.000   0.6948   0.00973   0.00224  -0.0043   0.0813   0.9940  59.2027 159.2786
   6.250   0.7295   0.01004   0.00239  -0.0059   0.0707   0.9958  60.1755 159.4902
   6.500   0.7637   0.01036   0.00257  -0.0074   0.0619   0.9976  61.0550 159.7115
   6.750   0.7978   0.01067   0.00274  -0.0089   0.0555   0.9992  61.7756 159.9084
   7.000   0.8264   0.01094   0.00289  -0.0092   0.0506   1.0000  62.3742 160.0000
   7.250   0.8469   0.01127   0.00307  -0.0079   0.0460   1.0000  62.9685 160.0000
   7.500   0.8683   0.01149   0.00320  -0.0066   0.0436   1.0000  63.3331 160.0000
   7.750   0.8890   0.01180   0.00337  -0.0053   0.0405   1.0000  63.7850 160.0000
   8.000   0.9098   0.01211   0.00355  -0.0039   0.0381   1.0000  64.1749 160.0000
   8.250   0.9312   0.01238   0.00371  -0.0027   0.0359   1.0000  64.5437 160.0000
   8.500   0.9511   0.01282   0.00397  -0.0013   0.0334   1.0000  64.9782 160.0000
   8.750   0.9730   0.01309   0.00415  -0.0001   0.0322   1.0000  65.2225 160.0000
   9.000   0.9948   0.01341   0.00434   0.0010   0.0307   1.0000  65.5158 160.0000
   9.250   1.0154   0.01383   0.00460   0.0022   0.0291   1.0000  65.8363 160.0000
   9.500   1.0363   0.01427   0.00488   0.0034   0.0278   1.0000  66.1095 160.0000
   9.750   1.0588   0.01459   0.00509   0.0044   0.0267   1.0000  66.3619 160.0000
  10.000   1.0809   0.01498   0.00533   0.0053   0.0255   1.0000  66.6165 160.0000
   0.000   0.0000   0.00540   0.00046  -0.0000   0.6871   0.6870  21.0490 139.9468
   0.250   0.0269   0.00540   0.00046   0.0003   0.6611   0.7120  22.6044 141.4414
   0.500   0.0537   0.00542   0.00047   0.0007   0.6355   0.7372  24.1369 142.9479
   0.750   0.0805   0.00544   0.00048   0.0011   0.6089   0.7612  25.7296 144.3833
   1.000   0.1074   0.00549   0.00050   0.0014   0.5825   0.7847  27.3148 145.7923
   1.250   0.1341   0.00555   0.00053   0.0018   0.5554   0.8070  28.9427 147.1253
   1.500   0.1609   0.00561   0.00056   0.0022   0.5289   0.8284  30.5372 148.4070
   1.750   0.1876   0.00570   0.00060   0.0026   0.5018   0.8487  32.1689 149.6263
   2.000   0.2142   0.00580   0.00064   0.0030   0.4742   0.8677  33.8336 150.7650
   2.250   0.2409   0.00592   0.00069   0.0034   0.4472   0.8851  35.4687 151.8113
   2.500   0.2673   0.00606   0.00074   0.0039   0.4194   0.9010  37.1531 152.7741
   2.750   0.2936   0.00622   0.00080   0.0044   0.3918   0.9155  38.8332 153.6587
   3.000   0.3200   0.00639   0.00087   0.0048   0.3641   0.9285  40.5240 154.4574
   3.250   0.3463   0.00659   0.00094   0.0053   0.3368   0.9404  42.2038 155.2062
   3.500   0.3723   0.00681   0.00101   0.0058   0.3087   0.9517  43.9331 155.9360
   3.750   0.4006   0.00703   0.00110   0.0058   0.2808   0.9598  45.6677 156.4872
   4.000   0.4278   0.00728   0.00118   0.0060   0.2537   0.9684  47.3683 157.0899
   4.250   0.4590   0.00757   0.00129   0.0053   0.2251   0.9737  49.1780 157.4922
   4.500   0.4877   0.00785   0.00139   0.0051   0.1990   0.9804  50.8536 158.0023
   4.750   0.5226   0.00815   0.00152   0.0035   0.1728   0.9828  52.5644 158.2112
   5.000   0.5580   0.00848   0.00165   0.0017   0.1486   0.9849  54.1842 158.3994
   5.250   0.5925   0.00880   0.00179   0.0002   0.1272   0.9874  55.6694 158.6197
   5.500   0.6254   0.00912   0.00194  -0.0011   0.1087   0.9904  57.0068 158.8896
   5.750   0.6595   0.00942   0.00209  -0.0025   0.0939   0.9925  58.1558 159.0973
   6.000   0.6948   0.00973   0.00224  -0.0043   0.0813   0.9940  59.2027 159.2786
   6.250   0.7295   0.01004   0.00239  -0.0059   0.0707   0.9958  60.1755 159.4902
   6.500   0.7637   0.01036   0.00257  -0.0074   0.0619   0.9976  61.0550 159.7115
   6.750   0.7978   0.01067   0.00274  -0.0089   0.0555   0.9992  61.7756 159.9084
   7.000   0.8264   0.01094   0.00289  -0.0092   0.0506   1.0000  62.3742 160.0000
   7.250   0.8469   0.01127   0.00307  -0.0079   0.0460   1.0000  62.9685 160.0000
   7.500   0.8683   0.01149   0.00320  -0.0066   0.0436   1.0000  63.3331 160.0000
   7.750   0.8890   0.01180   0.00337  -0.0053   0.0405   1.0000  63.7850 160.0000
   8.000   0.9098   0.01211   0.00355  -0.0039   0.0381   1.0000  64.1749 160.0000
   8.250   0.9312   0.01238   0.00371  -0.0027   0.0359   1.0000  64.5437 160.0000
   8.500   0.9511   0.01282   0.00397  -0.0013   0.0334   1.0000  64.9782 160.0000
   8.750   0.9730   0.01309   0.00415  -0.0001   0.0322   1.0000  65.2225 160.0000
   9.000   0.9948   0.01341   0.00434   0.0010   0.0307   1.0000  65.5158 160.0000
   9.250   1.0154   0.01383   0.00460   0.0022   0.0291   1.0000  65.8363 160.0000
   9.500   1.0363   0.01427   0.00488   0.0034   0.0278   1.0000  66.1095 160.0000
   9.750   1.0588   0.01459   0.00509   0.0044   0.0267   1.0000  66.3619 160.0000
  10.000   1.0809   0.01498   0.00533   0.0053   0.0255   1.0000  66.6165 160.0000
   0.000   0.0000   0.00540   0.00046  -0.0000   0.6871   0.6870  21.0490 139.9468
   0.250   0.0269   0.00540   0.00046   0.0003   0.6611   0.7120  22.6044 141.4414
   0.500   0.0537   0.00542   0.00047   0.0007   0.6355   0.7372  24.1369 142.9479
   0.750   0.0805   0.00544   0.00048   0.0011   0.6089   0.7612  25.7296 144.3833
   1.000   0.1074   0.00549   0.00050   0.0014   0.5825   0.7847  27.3148 145.7923
   1.250   0.1341   0.00555   0.00053   0.0018   0.5554   0.8070  28.9427 147.1253
   1.500   0.1609   0.00561   0.00056   0.0022   0.5289   0.8284  30.5372 148.4070
   1.750   0.1876   0.00570   0.00060   0.0026   0.5018   0.8487  32.1689 149.6263
   2.000   0.2142   0.00580   0.00064   0.0030   0.4742   0.8677  33.8336 150.7650
   2.250   0.2409   0.00592   0.00069   0.0034   0.4472   0.8851  35.4687 151.8113
   2.500   0.2673   0.00606   0.00074   0.0039   0.4194   0.9010  37.1531 152.7741
   2.750   0.2936   0.00622   0.00080   0.0044   0.3918   0.9155  38.8332 153.6587
   3.000   0.3200   0.00639   0.00087   0.0048   0.3641   0.9285  40.5240 154.4574
   3.250   0.3463   0.00659   0.00094   0.0053   0.3368   0.9404  42.2038 155.2062
   3.500   0.3723   0.00681   0.00101   0.0058   0.3087   0.9517  43.9331 155.9360
   3.750   0.4006   0.00703   0.00110   0.0058   0.2808   0.9598  45.6677 156.4872
   4.000   0.4278   0.00728   0.00118   0.0060   0.2537   0.9684  47.3683 157.0899
   4.250   0.4590   0.00757   0.00129   0.0053   0.2251   0.9737  49.1780 157.4922
   4.500   0.4877   0.00785   0.00139   0.0051   0.1990   0.9804  50.8536 158.0023
   4.750   0.5226   0.00815   0.00152   0.0035   0.1728   0.9828  52.5644 158.2112
   5.000   0.5580   0.00848   0.00165   0.0017   0.1486   0.9849  54.1842 158.3994
   5.250   0.5925   0.00880   0.00179   0.0002   0.1272   0.9874  55.6694 158.6197
   5.500   0.6254   0.00912   0.00194  -0.0011   0.1087   0.9904  57.0068 158.8896
   5.750   0.6595   0.00942   0.00209  -0.0025   0.0939   0.9925  58.1558 159.0973
   6.000   0.6948   0.00973   0.00224  -0.0043   0.0813   0.9940  59.2027 159.2786
   6.250   0.7295   0.01004   0.00239  -0.0059   0.0707   0.9958  60.1755 159.4902
   6.500   0.7637   0.01036   0.00257  -0.0074   0.0619   0.9976  61.0550 159.7115
   6.750   0.7978   0.01067   0.00274  -0.0089   0.0555   0.9992  61.7756 159.9084
   7.000   0.8264   0.01094   0.00289  -0.0092   0.0506   1.0000  62.3742 160.0000
   7.250   0.8469   0.01127   0.00307  -0.0079   0.0460   1.0000  62.9685 160.0000
   7.500   0.8683   0.01149   0.00320  -0.0066   0.0436   1.0000  63.3331 160.0000
   7.750   0.8890   0.01180   0.00337  -0.0053   0.0405   1.0000  63.7850 160.0000
   8.000   0.9098   0.01211   0.00355  -0.0039   0.0381   1.0000  64.1749 160.0000
   8.250   0.9312   0.01238   0.00371  -0.0027   0.0359   1.0000  64.5437 160.0000
   8.500   0.9511   0.01282   0.00397  -0.0013   0.0334   1.0000  64.9782 160.0000
   8.750   0.9730   0.01309   0.00415  -0.0001   0.0322   1.0000  65.2225 160.0000
   9.000   0.9948   0.01341   0.00434   0.0010   0.0307   1.0000  65.5158 160.0000
   9.250   1.0154   0.01383   0.00460   0.0022   0.0291   1.0000  65.8363 160.0000
   9.500   1.0363   0.01427   0.00488   0.0034   0.0278   1.0000  66.1095 160.0000
   9.750   1.0588   0.01459   0.00509   0.0044   0.0267   1.0000  66.3619 160.0000
  10.000   1.0809   0.01498   0.00533   0.0053   0.0255   1.0000  66.6165 160.0000
   0.000   0.0000   0.00540   0.00046  -0.0000   0.6871   0.6870  21.0490 139.9468
   0.250   0.0269   0.00540   0.00046   0.0003   0.6611   0.7120  22.6044 141.4414
   0.500   0.0537   0.00542   0.00047   0.0007   0.6355   0.7372  24.1369 142.9479
   0.750   0.0805   0.00544   0.00048   0.0011   0.6089   0.7612  25.7296 144.3833
   1.000   0.1074   0.00549   0.00050   0.0014   0.5825   0.7847  27.3148 145.7923
   1.250   0.1341   0.00555   0.00053   0.0018   0.5554   0.8070  28.9427 147.1253
   1.500   0.1609   0.00561   0.00056   0.0022   0.5289   0.8284  30.5372 148.4070
   1.750   0.1876   0.00570   0.00060   0.0026   0.5018   0.8487  32.1689 149.6263
   2.000   0.2142   0.00580   0.00064   0.0030   0.4742   0.8677  33.8336 150.7650
   2.250   0.2409   0.00592   0.00069   0.0034   0.4472   0.8851  35.4687 151.8113
   2.500   0.2673   0.00606   0.00074   0.0039   0.4194   0.9010  37.1531 152.7741
   2.750   0.2936   0.00622   0.00080   0.0044   0.3918   0.9155  38.8332 153.6587
   3.000   0.3200   0.00639   0.00087   0.0048   0.3641   0.9285  40.5240 154.4574
   3.250   0.3463   0.00659   0.00094   0.0053   0.3368   0.9404  42.2038 155.2062
   3.500   0.3723   0.00681   0.00101   0.0058   0.3087   0.9517  43.9331 155.9360
   3.750   0.4006   0.00703   0.00110   0.0058   0.2808   0.9598  45.6677 156.4872
   4.000   0.4278   0.00728   0.00118   0.0060   0.2537   0.9684  47.3683 157.0899
   4.250   0.4590   0.00757   0.00129   0.0053   0.2251   0.9737  49.1780 157.4922
   4.500   0.4877   0.00785   0.00139   0.0051   0.1990   0.9804  50.8536 158.0023
   4.750   0.5226   0.00815   0.00152   0.0035   0.1728   0.9828  52.5644 158.2112
   5.000   0.5580   0.00848   0.00165   0.0017   0.1486   0.9849  54.1842 158.3994
   5.250   0.5925   0.00880   0.00179   0.0002   0.1272   0.9874  55.6694 158.6197
   5.500   0.6254   0.00912   0.00194  -0.0011   0.1087   0.9904  57.0068 158.8896
   5.750   0.6595   0.00942   0.00209  -0.0025   0.0939   0.9925  58.1558 159.0973
   6.000   0.6948   0.00973   0.00224  -0.0043   0.0813   0.9940  59.2027 159.2786
   6.250   0.7295   0.01004   0.00239  -0.0059   0.0707   0.9958  60.1755 159.4902
   6.500   0.7637   0.01036   0.00257  -0.0074   0.0619   0.9976  61.0550 159.7115
   6.750   0.7978   0.01067   0.00274  -0.0089   0.0555   0.9992  61.7756 159.9084
   7.000   0.8264   0.01094   0.00289  -0.0092   0.0506   1.0000  62.3742 160.0000
   7.250   0.8469   0.01127   0.00307  -0.0079   0.0460   1.0000  62.9685 160.0000
   7.500   0.8683   0.01149   0.00320  -0.0066   0.0436   1.0000  63.3331 160.0000
   7.750   0.8890   0.01180   0.00337  -0.0053   0.0405   1.0000  63.7850 160.0000
   8.000   0.9098   0.01211   0.00355  -0.0039   0.0381   1.0000  64.1749 160.0000
   8.250   0.9312   0.01238   0.00371  -0.0027   0.0359   1.0000  64.5437 160.0000
   8.500   0.9511   0.01282   0.00397  -0.0013   0.0334   1.0000  64.9782 160.0000
   8.750   0.9730   0.01309   0.00415  -0.0001   0.0322   1.0000  65.2225 160.0000
   9.000   0.9948   0.01341   0.00434   0.0010   0.0307   1.0000  65.5158 160.0000
   9.250   1.0154   0.01383   0.00460   0.0022   0.0291   1.0000  65.8363 160.0000
   9.500   1.0363   0.01427   0.00488   0.0034   0.0278   1.0000  66.1095 160.0000
   9.750   1.0588   0.01459   0.00509   0.0044   0.0267   1.0000  66.3619 160.0000
  10.000   1.0809   0.01498   0.00533   0.0053   0.0255   1.0000  66.6165 160.0000
   0.000   0.0000   0.00540   0.00046  -0.0000   0.6871   0.6870  21.0490 139.9468
   0.250   0.0269   0.00540   0.00046   0.0003   0.6611   0.7120  22.6044 141.4414
   0.500   0.0537   0.00542   0.00047   0.0007   0.6355   0.7372  24.1369 142.9479
   0.750   0.0805   0.00544   0.00048   0.0011   0.6089   0.7612  25.7296 144.3833
   1.000   0.1074   0.00549   0.00050   0.0014   0.5825   0.7847  27.3148 145.7923
   1.250   0.1341   0.00555   0.00053   0.0018   0.5554   0.8070  28.9427 147.1253
   1.500   0.1609   0.00561   0.00056   0.0022   0.5289   0.8284  30.5372 148.4070
   1.750   0.1876   0.00570   0.00060   0.0026   0.5018   0.8487  32.1689 149.6263
   2.000   0.2142   0.00580   0.00064   0.0030   0.4742   0.8677  33.8336 150.7650
   2.250   0.2409   0.00592   0.00069   0.0034   0.4472   0.8851  35.4687 151.8113
   2.500   0.2673   0.00606   0.00074   0.0039   0.4194   0.9010  37.1531 152.7741
   2.750   0.2936   0.00622   0.00080   0.0044   0.3918   0.9155  38.8332 153.6587
   3.000   0.3200   0.00639   0.00087   0.0048   0.3641   0.9285  40.5240 154.4574
   3.250   0.3463   0.00659   0.00094   0.0053   0.3368   0.9404  42.2038 155.2062
   3.500   0.3723   0.00681   0.00101   0.0058   0.3087   0.9517  43.9331 155.9360
   3.750   0.4006   0.00703   0.00110   0.0058   0.2808   0.9598  45.6677 156.4872
   4.000   0.4278   0.00728   0.00118   0.0060   0.2537   0.9684  47.3683 157.0899
   4.250   0.4590   0.00757   0.00129   0.0053   0.2251   0.9737  49.1780 157.4922
   4.500   0.4877   0.00785   0.00139   0.0051   0.1990   0.9804  50.8536 158.0023
   4.750   0.5226   0.00815   0.00152   0.0035   0.1728   0.9828  52.5644 158.2112
   5.000   0.5580   0.00848   0.00165   0.0017   0.1486   0.9849  54.1842 158.3994
   5.250   0.5925   0.00880   0.00179   0.0002   0.1272   0.9874  55.6694 158.6197
   5.500   0.6254   0.00912   0.00194  -0.0011   0.1087   0.9904  57.0068 158.8896
   5.750   0.6595   0.00942   0.00209  -0.0025   0.0939   0.9925  58.1558 159.0973
   6.000   0.6948   0.00973   0.00224  -0.0043   0.0813   0.9940  59.2027 159.2786
   6.250   0.7295   0.01004   0.00239  -0.0059   0.0707   0.9958  60.1755 159.4902
   6.500   0.7637   0.01036   0.00257  -0.0074   0.0619   0.9976  61.0550 159.7115
   6.750   0.7978   0.01067   0.00274  -0.0089   0.0555   0.9992  61.7756 159.9084
   7.000   0.8264   0.01094   0.00289  -0.0092   0.0506   1.0000  62.3742 160.0000
   7.250   0.8469   0.01127   0.00307  -0.0079   0.0460   1.0000  62.9685 160.0000
   7.500   0.8683   0.01149   0.00320  -0.0066   0.0436   1.0000  63.3331 160.0000
   7.750   0.8890   0.01180   0.00337  -0.0053   0.0405   1.0000  63.7850 160.0000
   8.000   0.9098   0.01211   0.00355  -0.0039   0.0381   1.0000  64.1749 160.0000
   8.250   0.9312   0.01238   0.00371  -0.0027   0.0359   1.0000  64.5437 160.0000
   8.500   0.9511   0.01282   0.00397  -0.0013   0.0334   1.0000  64.9782 160.0000
   8.750   0.9730   0.01309   0.00415  -0.0001   0.0322   1.0000  65.2225 160.0000
   9.000   0.9948   0.01341   0.00434   0.0010   0.0307   1.0000  65.5158 160.0000
   9.250   1.0154   0.01383   0.00460   0.0022   0.0291   1.0000  65.8363 160.0000
   9.500   1.0363   0.01427   0.00488   0.0034   0.0278   1.0000  66.1095 160.0000
   9.750   1.0588   0.01459   0.00509   0.0044   0.0267   1.0000  66.3619 160.0000
  10.000   1.0809   0.01498   0.00533   0.0053   0.0255   1.0000  66.6165 160.0000
   0.000   0.0000   0.00540   0.00046  -0.0000   0.6871   0.6870  21.0490 139.9468
   0.250   0.0269   0.00540   0.00046   0.0003   0.6611   0.7120  22.6044 141.4414
   0.500   0.0537   0.00542   0.00047   0.0007   0.6355   0.7372  24.1369 142.9479
   0.750   0.0805   0.00544   0.00048   0.0011   0.6089   0.7612  25.7296 144.3833
   1.000   0.1074   0.00549   0.00050   0.0014   0.5825   0.7847  27.3148 145.7923
   1.250   0.1341   0.00555   0.00053   0.0018   0.5554   0.8070  28.9427 147.1253
   1.500   0.1609   0.00561   0.00056   0.0022   0.5289   0.8284  30.5372 148.4070
   1.750   0.1876   0.00570   0.00060   0.0026   0.5018   0.8487  32.1689 149.6263
   2.000   0.2142   0.00580   0.00064   0.0030   0.4742   0.8677  33.8336 150.7650
   2.250   0.2409   0.00592   0.00069   0.0034   0.4472   0.8851  35.4687 151.8113
   2.500   0.2673   0.00606   0.00074   0.0039   0.4194   0.9010  37.1531 152.7741
   2.750   0.2936   0.00622   0.00080   0.0044   0.3918   0.9155  38.8332 153.6587
   3.000   0.3200   0.00639   0.00087   0.0048   0.3641   0.9285  40.5240 154.4574
   3.250   0.3463   0.00659   0.00094   0.0053   0.3368   0.9404  42.2038 155.2062
   3.500   0.3723   0.00681   0.00101   0.0058   0.3087   0.9517  43.9331 155.9360
   3.750   0.4006   0.00703   0.00110   0.0058   0.2808   0.9598  45.6677 156.4872
   4.000   0.4278   0.00728   0.00118   0.0060   0.2537   0.9684  47.3683 157.0899
   4.250   0.4590   0.00757   0.00129   0.0053   0.2251   0.9737  49.1780 157.4922
   4.500   0.4877   0.00785   0.00139   0.0051   0.1990   0.9804  50.8536 158.0023
   4.750   0.5226   0.00815   0.00152   0.0035   0.1728   0.9828  52.5644 158.2112
   5.000   0.5580   0.00848   0.00165   0.0017   0.1486   0.9849  54.1842 158.3994
   5.250   0.5925   0.00880   0.00179   0.0002   0.1272   0.9874  55.6694 158.6197
   5.500   0.6254   0.00912   0.00194  -0.0011   0.1087   0.9904  57.0068 158.8896
   5.750   0.6595   0.00942   0.00209  -0.0025   0.0939   0.9925  58.1558 159.0973
   6.000   0.6948   0.00973   0.00224  -0.0043   0.0813   0.9940  59.2027 159.2786
   6.250   0.7295   0.01004   0.00239  -0.0059   0.0707   0.9958  60.1755 159.4902
   6.500   0.7637   0.01036   0.00257  -0.0074   0.0619   0.9976  61.0550 159.7115
   6.750   0.7978   0.01067   0.00274  -0.0089   0.0555   0.9992  61.7756 159.9084
   7.000   0.8264   0.01094   0.00289  -0.0092   0.0506   1.0000  62.3742 160.0000
   7.250   0.8469   0.01127   0.00307  -0.0079   0.0460   1.0000  62.9685 160.0000
   7.500   0.8683   0.01149   0.00320  -0.0066   0.0436   1.0000  63.3331 160.0000
   7.750   0.8890   0.01180   0.00337  -0.0053   0.0405   1.0000  63.7850 160.0000
   8.000   0.9098   0.01211   0.00355  -0.0039   0.0381   1.0000  64.1749 160.0000
   8.250   0.9312   0.01238   0.00371  -0.0027   0.0359   1.0000  64.5437 160.0000
   8.500   0.9511   0.01282   0.00397  -0.0013   0.0334   1.0000  64.9782 160.0000
   8.750   0.9730   0.01309   0.00415  -0.0001   0.0322   1.0000  65.2225 160.0000
   9.000   0.9948   0.01341   0.00434   0.0010   0.0307   1.0000  65.5158 160.0000
   9.250   1.0154   0.01383   0.00460   0.0022   0.0291   1.0000  65.8363 160.0000
   9.500   1.0363   0.01427   0.00488   0.0034   0.0278   1.0000  66.1095 160.0000
   9.750   1.0588   0.01459   0.00509   0.0044   0.0267   1.0000  66.3619 160.0000
  10.000   1.0809   0.01498   0.00533   0.0053   0.0255   1.0000  66.6165 160.0000
   0.000   0.0000   0.00540   0.00046  -0.0000   0.6871   0.6870  21.0490 139.9468
   0.250   0.0269   0.00540   0.00046   0.0003   0.6611   0.7120  22.6044 141.4414
   0.500   0.0537   0.00542   0.00047   0.0007   0.6355   0.7372  24.1369 142.9479
   0.750   0.0805   0.00544   0.00048   0.0011   0.6089   0.7612  25.7296 144.3833
   1.000   0.1074   0.00549   0.00050   0.0014   0.5825   0.7847  27.3148 145.7923
   1.250   0.1341   0.00555   0.00053   0.0018   0.5554   0.8070  28.9427 147.1253
   1.500   0.1609   0.00561   0.00056   0.0022   0.5289   0.8284  30.5372 148.4070
   1.750   0.1876   0.00570   0.00060   0.0026   0.5018   0.8487  32.1689 149.6263
   2.000   0.2142   0.00580   0.00064   0.0030   0.4742   0.8677  33.8336 150.7650
   2.250   0.2409   0.00592   0.00069   0.0034   0.4472   0.8851  35.4687 151.8113
   2.500   0.2673   0.00606   0.00074   0.0039   0.4194   0.9010  37.1531 152.7741
   2.750   0.2936   0.00622   0.00080   0.0044   0.3918   0.9155  38.8332 153.6587
   3.000   0.3200   0.00639   0.00087   0.0048   0.3641   0.9285  40.5240 154.4574
   3.250   0.3463   0.00659   0.00094   0.0053   0.3368   0.9404  42.2038 155.2062
   3.500   0.3723   0.00681   0.00101   0.0058   0.3087   0.9517  43.9331 155.9360
   3.750   0.4006   0.00703   0.00110   0.0058   0.2808   0.9598  45.6677 156.4872
   4.000   0.4278   0.00728   0.00118   0.0060   0.2537   0.9684  47.3683 157.0899
   4.250   0.4590   0.00757   0.00129   0.0053   0.2251   0.9737  49.1780 157.4922
   4.500   0.4877   0.00785   0.00139   0.0051   0.1990   0.9804  50.8536 158.0023
   4.750   0.5226   0.00815   0.00152   0.0035   0.1728   0.9828  52.5644 158.2112
   5.000   0.5580   0.00848   0.00165   0.0017   0.1486   0.9849  54.1842 158.3994
   5.250   0.5925   0.00880   0.00179   0.0002   0.1272   0.9874  55.6694 158.6197
   5.500   0.6254   0.00912   0.00194  -0.0011   0.1087   0.9904  57.0068 158.8896
   5.750   0.6595   0.00942   0.00209  -0.0025   0.0939   0.9925  58.1558 159.0973
   6.000   0.6948   0.00973   0.00224  -0.0043   0.0813   0.9940  59.2027 159.2786
   6.250   0.7295   0.01004   0.00239  -0.0059   0.0707   0.9958  60.1755 159.4902
   6.500   0.7637   0.01036   0.00257  -0.0074   0.0619   0.9976  61.0550 159.7115
   6.750   0.7978   0.01067   0.00274  -0.0089   0.0555   0.9992  61.7756 159.9084
   7.000   0.8264   0.01094   0.00289  -0.0092   0.0506   1.0000  62.3742 160.0000
   7.250   0.8469   0.01127   0.00307  -0.0079   0.0460   1.0000  62.9685 160.0000
   7.500   0.8683   0.01149   0.00320  -0.0066   0.0436   1.0000  63.3331 160.0000
   7.750   0.8890   0.01180   0.00337  -0.0053   0.0405   1.0000  63.7850 160.0000
   8.000   0.9098   0.01211   0.00355  -0.0039   0.0381   1.0000  64.1749 160.0000
   8.250   0.9312   0.01238   0.00371  -0.0027   0.0359   1.0000  64.5437 160.0000
   8.500   0.9511   0.01282   0.00397  -0.0013   0.0334   1.0000  64.9782 160.0000
   8.750   0.9730   0.01309   0.00415  -0.0001   0.0322   1.0000  65.2225 160.0000
   9.000   0.9948   0.01341   0.00434   0.0010   0.0307   1.0000  65.5158 160.0000
   9.250   1.0154   0.01383   0.00460   0.0022   0.0291   1.0000  65.8363 160.0000
   9.500   1.0363   0.01427   0.00488   0.0034   0.0278   1.0000  66.1095 160.0000
   9.750   1.0588   0.01459   0.00509   0.0044   0.0267   1.0000  66.3619 160.0000
  10.000   1.0809   0.01498   0.00533   0.0053   0.0255   1.0000  66.6165 160.0000
   0.000   0.0000   0.00540   0.00046  -0.0000   0.6871   0.6870  21.0490 139.9468
   0.250   0.0269   0.00540   0.00046   0.0003   0.6611   0.7120  22.6044 141.4414
   0.500   0.0537   0.00542   0.00047   0.0007   0.6355   0.7372  24.1369 142.9479
   0.750   0.0805   0.00544   0.00048   0.0011   0.6089   0.7612  25.7296 144.3833
   1.000   0.1074   0.00549   0.00050   0.0014   0.5825   0.7847  27.3148 145.7923
   1.250   0.1341   0.00555   0.00053   0.0018   0.5554   0.8070  28.9427 147.1253
   1.500   0.1609   0.00561   0.00056   0.0022   0.5289   0.8284  30.5372 148.4070
   1.750   0.1876   0.00570   0.00060   0.0026   0.5018   0.8487  32.1689 149.6263
   2.000   0.2142   0.00580   0.00064   0.0030   0.4742   0.8677  33.8336 150.7650
   2.250   0.2409   0.00592   0.00069   0.0034   0.4472   0.8851  35.4687 151.8113
   2.500   0.2673   0.00606   0.00074   0.0039   0.4194   0.9010  37.1531 152.7741
   2.750   0.2936   0.00622   0.00080   0.0044   0.3918   0.9155  38.8332 153.6587
   3.000   0.3200   0.00639   0.00087   0.0048   0.3641   0.9285  40.5240 154.4574
   3.250   0.3463   0.00659   0.00094   0.0053   0.3368   0.9404  42.2038 155.2062
   3.500   0.3723   0.00681   0.00101   0.0058   0.3087   0.9517  43.9331 155.9360
   3.750   0.4006   0.00703   0.00110   0.0058   0.2808   0.9598  45.6677 156.4872
   4.000   0.4278   0.00728   0.00118   0.0060   0.2537   0.9684  47.3683 157.0899
   4.250   0.4590   0.00757   0.00129   0.0053   0.2251   0.9737  49.1780 157.4922
   4.500   0.4877   0.00785   0.00139   0.0051   0.1990   0.9804  50.8536 158.0023
   4.750   0.5226   0.00815   0.00152   0.0035   0.1728   0.9828  52.5644 158.2112
   5.000   0.5580   0.00848   0.00165   0.0017   0.1486   0.9849  54.1842 158.3994
   5.250   0.5925   0.00880   0.00179   0.0002   0.1272   0.9874  55.6694 158.6197
   5.500   0.6254   0.00912   0.00194  -0.0011   0.1087   0.9904  57.0068 158.8896
   5.750   0.6595   0.00942   0.00209  -0.0025   0.0939   0.9925  58.1558 159.0973
   6.000   0.6948   0.00973   0.00224  -0.0043   0.0813   0.9940  59.2027 159.2786
   6.250   0.7295   0.01004   0.00239  -0.0059   0.0707   0.9958  60.1755 159.4902
   6.500   0.7637   0.01036   0.00257  -0.0074   0.0619   0.9976  61.0550 159.7115
   6.750   0.7978   0.01067   0.00274  -0.0089   0.0555   0.9992  61.7756 159.9084
   7.000   0.8264   0.01094   0.00289  -0.0092   0.0506   1.0000  62.3742 160.0000
   7.250   0.8469   0.01127   0.00307  -0.0079   0.0460   1.0000  62.9685 160.0000
   7.500   0.8683   0.01149   0.00320  -0.0066   0.0436   1.0000  63.3331 160.0000
   7.750   0.8890   0.01180   0.00337  -0.0053   0.0405   1.0000  63.7850 160.0000
   8.000   0.9098   0.01211   0.00355  -0.0039   0.0381   1.0000  64.1749 160.0000
   8.250   0.9312   0.01238   0.00371  -0.0027   0.0359   1.0000  64.5437 160.0000
   8.500   0.9511   0.01282   0.00397  -0.0013   0.0334   1.0000  64.9782 160.0000
   8.750   0.9730   0.01309   0.00415  -0.0001   0.0322   1.0000  65.2225 160.0000
   9.000   0.9948   0.01341   0.00434   0.0010   0.0307   1.0000  65.5158 160.0000
   9.250   1.0154   0.01383   0.00460   0.0022   0.0291   1.0000  65.8363 160.0000
   9.500   1.0363   0.01427   0.00488   0.0034   0.0278   1.0000  66.1095 160.0000
   9.750   1.0588   0.01459   0.00509   0.0044   0.0267   1.0000  66.3619 160.0000
  10.000   1.0809   0.01498   0.00533   0.0053   0.0255   1.0000  66.6165 160.0000
   0.000   0.0000   0.00540   0.00046  -0.0000   0.6871   0.6870  21.0490 139.9468
   0.250   0.0269   0.00540   0.00046   0.0003   0.6611   0.7120  22.6044 141.4414
   0.500   0.0537   0.00542   0.00047   0.0007   0.6355   0.7372  24.1369 142.9479
   0.750   0.0805   0.00544   0.00048   0.0011   0.6089   0.7612  25.7296 144.3833
   1.000   0.1074   0.00549   0.00050   0.0014   0.5825   0.7847  27.3148 145.7923
   1.250   0.1341   0.00555   0.00053   0.0018   0.5554   0.8070  28.9427 147.1253
   1.500   0.1609   0.00561   0.00056   0.0022   0.5289   0.8284  30.5372 148.4070
   1.750   0.1876   0.00570   0.00060   0.0026   0.5018   0.8487  32.1689 149.6263
   2.000   0.2142   0.00580   0.00064   0.0030   0.4742   0.8677  33.8336 150.7650
   2.250   0.2409   0.00592   0.00069   0.0034   0.4472   0.8851  35.4687 151.8113
   2.500   0.2673   0.00606   0.00074   0.0039   0.4194   0.9010  37.1531 152.7741
   2.750   0.2936   0.00622   0.00080   0.0044   0.3918   0.9155  38.8332 153.6587
   3.000   0.3200   0.00639   0.00087   0.0048   0.3641   0.9285  40.5240 154.4574
   3.250   0.3463   0.00659   0.00094   0.0053   0.3368   0.9404  42.2038 155.2062
   3.500   0.3723   0.00681   0.00101   0.0058   0.3087   0.9517  43.9331 155.9360
   3.750   0.4006   0.00703   0.00110   0.0058   0.2808   0.9598  45.6677 156.4872
   4.000   0.4278   0.00728   0.00118   0.0060   0.2537   0.9684  47.3683 157.0899
   4.250   0.4590   0.00757   0.00129   0.0053   0.2251   0.9737  49.1780 157.4922
   4.500   0.4877   0.00785   0.00139   0.0051   0.1990   0.9804  50.8536 158.0023
   4.750   0.5226   0.00815   0.00152   0.0035   0.1728   0.9828  52.5644 158.2112
   5.000   0.5580   0.00848   0.00165   0.0017   0.1486   0.9849  54.1842 158.3994
   5.250   0.5925   0.00880   0.00179   0.0002   0.1272   0.9874  55.6694 158.6197
   5.500   0.6254   0.00912   0.00194  -0.0011   0.1087   0.9904  57.0068 158.8896
   5.750   0.6595   0.00942   0.00209  -0.0025   0.0939   0.9925  58.1558 159.0973
   6.000   0.6948   0.00973   0.00224  -0.0043   0.0813   0.9940  59.2027 159.2786
   6.250   0.7295   0.01004   0.00239  -0.0059   0.0707   0.9958  60.1755 159.4902
   6.500   0.7637   0.01036   0.00257  -0.0074   0.0619   0.9976  61.0550 159.7115
   6.750   0.7978   0.01067   0.00274  -0.0089   0.0555   0.9992  61.7756 159.9084
   7.000   0.8264   0.01094   0.00289  -0.0092   0.0506   1.0000  62.3742 160.0000
   7.250   0.8469   0.01127   0.00307  -0.0079   0.0460   1.0000  62.9685 160.0000
   7.500   0.8683   0.01149   0.00320  -0.0066   0.0436   1.0000  63.3331 160.0000
   7.750   0.8890   0.01180   0.00337  -0.0053   0.0405   1.0000  63.7850 160.0000
   8.000   0.9098   0.01211   0.00355  -0.0039   0.0381   1.0000  64.1749 160.0000
   8.250   0.9312   0.01238   0.00371  -0.0027   0.0359   1.0000  64.5437 160.0000
   8.500   0.9511   0.01282   0.00397  -0.0013   0.0334   1.0000  64.9782 160.0000
   8.750   0.9730   0.01309   0.00415  -0.0001   0.0322   1.0000  65.2225 160.0000
   9.000   0.9948   0.01341   0.00434   0.0010   0.0307   1.0000  65.5158 160.0000
   9.250   1.0154   0.01383   0.00460   0.0022   0.0291   1.0000  65.8363 160.0000
   9.500   1.0363   0.01427   0.00488   0.0034   0.0278   1.0000  66.1095 160.0000
   9.750   1.0588   0.01459   0.00509   0.0044   0.0267   1.0000  66.3619 160.0000
  10.000   1.0809   0.01498   0.00533   0.0053   0.0255   1.0000  66.6165 160.0000
   0.000   0.0000   0.00540   0.00046  -0.0000   0.6871   0.6870  21.0490 139.9468
   0.250   0.0269   0.00540   0.00046   0.0003   0.6611   0.7120  22.6044 141.4414
   0.500   0.0537   0.00542   0.00047   0.0007   0.6355   0.7372  24.1369 142.9479
   0.750   0.0805   0.00544   0.00048   0.0011   0.6089   0.7612  25.7296 144.3833
   1.000   0.1074   0.00549   0.00050   0.0014   0.5825   0.7847  27.3148 145.7923
   1.250   0.1341   0.00555   0.00053   0.0018   0.5554   0.8070  28.9427 147.1253
   1.500   0.1609   0.00561   0.00056   0.0022   0.5289   0.8284  30.5372 148.4070
   1.750   0.1876   0.00570   0.00060   0.0026   0.5018   0.8487  32.1689 149.6263
   2.000   0.2142   0.00580   0.00064   0.0030   0.4742   0.8677  33.8336 150.7650
   2.250   0.2409   0.00592   0.00069   0.0034   0.4472   0.8851  35.4687 151.8113
   2.500   0.2673   0.00606   0.00074   0.0039   0.4194   0.9010  37.1531 152.7741
   2.750   0.2936   0.00622   0.00080   0.0044   0.3918   0.9155  38.8332 153.6587
   3.000   0.3200   0.00639   0.00087   0.0048   0.3641   0.9285  40.5240 154.4574
   3.250   0.3463   0.00659   0.00094   0.0053   0.3368   0.9404  42.2038 155.2062
   3.500   0.3723   0.00681   0.00101   0.0058   0.3087   0.9517  43.9331 155.9360
   3.750   0.4006   0.00703   0.00110   0.0058   0.2808   0.9598  45.6677 156.4872
   4.000   0.4278   0.00728   0.00118   0.0060   0.2537   0.9684  47.3683 157.0899
   4.250   0.4590   0.00757   0.00129   0.0053   0.2251   0.9737  49.1780 157.4922
   4.500   0.4877   0.00785   0.00139   0.0051   0.1990   0.9804  50.8536 158.0023
   4.750   0.5226   0.00815   0.00152   0.0035   0.1728   0.9828  52.5644 158.2112
   5.000   0.5580   0.00848   0.00165   0.0017   0.1486   0.9849  54.1842 158.3994
   5.250   0.5925   0.00880   0.00179   0.0002   0.1272   0.9874  55.6694 158.6197
   5.500   0.6254   0.00912   0.00194  -0.0011   0.1087   0.9904  57.0068 158.8896
   5.750   0.6595   0.00942   0.00209  -0.0025   0.0939   0.9925  58.1558 159.0973
   6.000   0.6948   0.00973   0.00224  -0.0043   0.0813   0.9940  59.2027 159.2786
   6.250   0.7295   0.01004   0.00239  -0.0059   0.0707   0.9958  60.1755 159.4902
   6.500   0.7637   0.01036   0.00257  -0.0074   0.0619   0.9976  61.0550 159.7115
   6.750   0.7978   0.01067   0.00274  -0.0089   0.0555   0.9992  61.7756 159.9084
   7.000   0.8264   0.01094   0.00289  -0.0092   0.0506   1.0000  62.3742 160.0000
   7.250   0.8469   0.01127   0.00307  -0.0079   0.0460   1.0000  62.9685 160.0000
   7.500   0.8683   0.01149   0.00320  -0.0066   0.0436   1.0000  63.3331 160.0000
   7.750   0.8890   0.01180   0.00337  -0.0053   0.0405   1.0000  63.7850 160.0000
   8.000   0.9098   0.01211   0.00355  -0.0039   0.0381   1.0000  64.1749 160.0000
   8.250   0.9312   0.01238   0.00371  -0.0027   0.0359   1.0000  64.5437 160.0000
   8.500   0.9511   0.01282   0.00397  -0.0013   0.0334   1.0000  64.9782 160.0000
   8.750   0.9730   0.01309   0.00415  -0.0001   0.0322   1.0000  65.2225 160.0000
   9.000   0.9948   0.01341   0.00434   0.0010   0.0307   1.0000  65.5158 160.0000
   9.250   1.0154   0.01383   0.00460   0.0022   0.0291   1.0000  65.8363 160.0000
   9.500   1.0363   0.01427   0.00488   0.0034   0.0278   1.0000  66.1095 160.0000
   9.750   1.0588   0.01459   0.00509   0.0044   0.0267   1.0000  66.3619 160.0000
  10.000   1.0809   0.01498   0.00533   0.0053   0.0255   1.0000  66.6165 160.0000
